Version 4.1
SHEET 1 1132 680
WIRE 240 16 208 16
WIRE 368 16 320 16
WIRE -624 32 -720 32
WIRE -112 32 -160 32
WIRE 0 32 -32 32
WIRE -720 48 -720 32
WIRE -624 48 -624 32
WIRE 624 48 576 48
WIRE 736 48 704 48
WIRE -304 128 -416 128
WIRE -272 128 -304 128
WIRE -160 128 -160 32
WIRE -160 128 -192 128
WIRE -112 128 -160 128
WIRE 96 128 64 128
WIRE 208 128 208 16
WIRE 208 128 160 128
WIRE 240 128 208 128
WIRE 0 144 0 32
WIRE 0 144 -48 144
WIRE 64 144 64 128
WIRE 64 144 0 144
WIRE 368 144 368 16
WIRE 368 144 304 144
WIRE 464 144 368 144
WIRE 576 144 576 48
WIRE 576 144 544 144
WIRE 624 144 576 144
WIRE 736 160 736 48
WIRE 736 160 688 160
WIRE 800 160 736 160
FLAG 240 160 0
FLAG -624 48 0
FLAG -720 -48 vcc
FLAG -720 128 vee
FLAG 272 176 vee
FLAG 272 112 vcc
FLAG 896 112 0
FLAG 656 128 vcc
FLAG 656 192 vee
FLAG 624 176 0
FLAG -80 112 vcc
FLAG -80 176 vee
FLAG -112 160 0
FLAG -304 128 in
FLAG 800 160 out
SYMBOL diode 96 144 R270
WINDOW 0 32 32 VTop 2
WINDOW 3 0 32 VBottom 2
SYMATTR InstName D1
SYMATTR Value 1N914
SYMBOL res 336 0 R90
WINDOW 0 0 56 VBottom 2
WINDOW 3 32 56 VTop 2
SYMATTR InstName R1
SYMATTR Value 0.4g
SYMBOL OpAmps\\OP07 272 80 R0
SYMATTR InstName U1
SYMBOL voltage -720 -64 R0
WINDOW 123 0 0 Left 0
WINDOW 39 0 0 Left 0
SYMATTR InstName V1
SYMATTR Value 100
SYMBOL voltage -720 32 R0
WINDOW 123 0 0 Left 0
WINDOW 39 0 0 Left 0
SYMATTR InstName V2
SYMATTR Value 100
SYMBOL voltage 896 16 R0
WINDOW 0 7 -6 Left 2
WINDOW 123 0 0 Left 0
WINDOW 39 0 0 Left 0
SYMATTR InstName V3
SYMATTR Value SINE(0 0.03 0.17)
SYMBOL OpAmps\\OP07 656 96 R0
SYMATTR InstName U2
SYMBOL res 560 128 R90
WINDOW 0 0 56 VBottom 2
WINDOW 3 32 56 VTop 2
SYMATTR InstName R2
SYMATTR Value 1k
SYMBOL res 720 32 R90
WINDOW 0 0 56 VBottom 2
WINDOW 3 32 56 VTop 2
SYMATTR InstName R3
SYMATTR Value 1k
SYMBOL FuncGen_1 -512 176 R0
SYMATTR InstName X1
SYMBOL OpAmps\\OP07 -80 80 R0
SYMATTR InstName U3
SYMBOL res -176 112 R90
WINDOW 0 0 56 VBottom 2
WINDOW 3 32 56 VTop 2
SYMATTR InstName R4
SYMATTR Value 1k
SYMBOL res -16 16 R90
WINDOW 0 0 56 VBottom 2
WINDOW 3 32 56 VTop 2
SYMATTR InstName R5
SYMATTR Value 6
TEXT -744 352 Left 2 !.tran 0 15 10
