Version 4.1
SHEET 1 1684 680
WIRE 144 -32 144 -64
WIRE 576 -32 576 -80
WIRE 960 -32 960 -80
WIRE -704 0 -768 0
WIRE -272 0 -528 0
WIRE -96 0 -208 0
WIRE 96 0 -96 0
WIRE 368 0 224 0
WIRE 512 0 368 0
WIRE 848 0 640 0
WIRE 896 0 848 0
WIRE 1152 0 1024 0
WIRE -768 16 -768 0
WIRE 144 64 144 32
WIRE 576 80 576 32
WIRE 960 80 960 32
WIRE -768 128 -768 96
WIRE 512 288 512 272
WIRE 704 288 512 288
WIRE 512 320 512 288
WIRE 704 320 704 288
FLAG 704 320 0
FLAG 512 192 Vcc
FLAG 512 400 Vee
FLAG -768 0 vin
FLAG -96 0 vout
FLAG 848 0 vin2
FLAG 1152 0 vout2
FLAG -768 128 0
FLAG 576 -80 Vcc
FLAG 576 80 Vee
FLAG 960 -80 Vcc
FLAG 960 80 Vee
FLAG 368 0 vout1
FLAG 144 -64 Vcc
FLAG 144 64 Vee
SYMBOL voltage 512 176 R0
WINDOW 123 0 0 Left 0
WINDOW 39 0 0 Left 0
SYMATTR InstName V1
SYMATTR Value 15
SYMBOL voltage 512 304 R0
WINDOW 123 0 0 Left 0
WINDOW 39 0 0 Left 0
SYMATTR InstName V2
SYMATTR Value 15
SYMBOL input -624 0 R0
SYMATTR InstName Oscillator
SYMBOL voltage -768 0 R0
WINDOW 123 0 0 Left 0
WINDOW 39 0 0 Left 0
SYMATTR InstName V5
SYMATTR Value 10
SYMBOL schmitt_trigger 144 0 R0
WINDOW 0 -128 -47 Bottom 2
SYMATTR InstName Schmitt_trigger
SYMBOL integrator 576 0 R0
WINDOW 0 -133 89 Bottom 2
SYMATTR InstName Integrator_1
SYMBOL integrator 960 0 R0
WINDOW 0 -133 89 Bottom 2
SYMATTR InstName Integrator_2
SYMBOL cap -208 -16 R90
WINDOW 0 0 32 VBottom 2
WINDOW 3 32 32 VTop 2
SYMATTR InstName C1
SYMATTR Value 1µ
TEXT 56 -208 Left 2 !.tran 0 150ms 65m
