Version 4.1
SHEET 1 1172 680
WIRE 928 -32 928 -48
WIRE 1120 -32 928 -32
WIRE 928 0 928 -32
WIRE 1120 0 1120 -32
WIRE 64 80 64 48
WIRE -224 112 -320 112
WIRE -144 112 -224 112
WIRE 16 112 -144 112
WIRE 224 112 144 112
WIRE 240 112 224 112
WIRE 336 112 240 112
WIRE 352 112 336 112
WIRE 512 112 464 112
WIRE 528 112 512 112
WIRE 608 112 528 112
WIRE 784 112 736 112
WIRE 800 112 784 112
WIRE 816 112 800 112
WIRE 64 176 64 144
WIRE -144 256 -144 112
WIRE -64 256 -144 256
WIRE 224 256 224 112
WIRE 288 256 224 256
WIRE 528 256 528 112
WIRE 608 256 528 256
WIRE 800 256 800 112
WIRE 848 256 800 256
WIRE 0 0 0 0
FLAG 64 48 Vcc
FLAG 64 176 Vee
FLAG -448 96 Vcc
FLAG -448 128 Vee
FLAG 384 80 Vcc
FLAG 656 80 Vcc
FLAG 384 144 Vee
FLAG 656 144 Vee
FLAG -224 112 vout
FLAG 240 112 vout1
FLAG 512 112 vout2
FLAG 784 112 vout3
FLAG 1120 0 0
FLAG 928 -128 Vcc
FLAG 928 80 Vee
FLAG -64 256 sine
IOPIN -64 256 Out
FLAG 288 256 square
IOPIN 288 256 Out
FLAG 608 256 triangle
IOPIN 608 256 Out
FLAG 848 256 quadratic
IOPIN 848 256 Out
SYMBOL schmitt_trigger 64 112 R0
WINDOW 0 -128 -47 Bottom 2
SYMATTR InstName Schmitt_trigger1
SYMBOL input_3 -384 112 R0
SYMATTR InstName Oscillator1
SYMBOL integrator_2 400 112 R0
SYMATTR InstName Integrator1
SYMBOL integrator_2 672 112 R0
SYMATTR InstName Integrator2
SYMBOL voltage 928 -144 R0
WINDOW 123 0 0 Left 0
WINDOW 39 0 0 Left 0
SYMATTR InstName V1
SYMATTR Value 15
SYMBOL voltage 928 -16 R0
WINDOW 123 0 0 Left 0
WINDOW 39 0 0 Left 0
SYMATTR InstName V2
SYMATTR Value 15
TEXT 192 -104 Left 2 !.tran 0 5 0
