Version 4.1
SHEET 1 1372 680
WIRE 144 48 144 16
WIRE 576 48 576 0
WIRE 960 48 960 0
WIRE -704 80 -768 80
WIRE -272 80 -528 80
WIRE -112 80 -208 80
WIRE -96 80 -112 80
WIRE 96 80 -96 80
WIRE 288 80 224 80
WIRE 368 80 288 80
WIRE 512 80 368 80
WIRE 688 80 640 80
WIRE 848 80 688 80
WIRE 896 80 848 80
WIRE 1104 80 1024 80
WIRE 1152 80 1104 80
WIRE -768 96 -768 80
WIRE 144 144 144 112
WIRE 576 160 576 112
WIRE 960 160 960 112
WIRE -112 208 -112 80
WIRE -80 208 -112 208
WIRE 288 224 288 80
WIRE 368 224 288 224
WIRE 688 224 688 80
WIRE 784 224 688 224
WIRE 1104 224 1104 80
WIRE 1200 224 1104 224
WIRE 512 368 512 352
WIRE 704 368 512 368
WIRE 512 400 512 368
WIRE 704 400 704 368
FLAG 704 400 0
FLAG 512 272 Vcc
FLAG 512 480 Vee
FLAG -768 80 vin
FLAG -96 80 vout
FLAG 848 80 vin2
FLAG 1152 80 vout2
FLAG 576 0 Vcc
FLAG 576 160 Vee
FLAG 960 0 Vcc
FLAG 960 160 Vee
FLAG 368 80 vout1
FLAG 144 16 Vcc
FLAG 144 144 Vee
FLAG -80 208 sine
IOPIN -80 208 Out
FLAG 368 224 square
IOPIN 368 224 Out
FLAG 784 224 triangle
IOPIN 784 224 Out
FLAG -768 96 in
IOPIN -768 96 In
FLAG 1200 224 quadratic
IOPIN 1200 224 Out
SYMBOL voltage 512 256 R0
WINDOW 123 0 0 Left 0
WINDOW 39 0 0 Left 0
SYMATTR InstName V1
SYMATTR Value 15
SYMBOL voltage 512 384 R0
WINDOW 123 0 0 Left 0
WINDOW 39 0 0 Left 0
SYMATTR InstName V2
SYMATTR Value 15
SYMBOL input -624 80 R0
SYMATTR InstName Oscillator1
SYMBOL schmitt_trigger 144 80 R0
WINDOW 0 -128 -47 Bottom 2
SYMATTR InstName Schmitt_trigger1
SYMBOL integrator 576 80 R0
WINDOW 0 -133 89 Bottom 2
SYMATTR InstName Integrator_1
SYMBOL integrator 960 80 R0
WINDOW 0 -133 89 Bottom 2
SYMATTR InstName Integrator_2
SYMBOL cap -208 64 R90
WINDOW 0 0 32 VBottom 2
WINDOW 3 32 32 VTop 2
SYMATTR InstName C1
SYMATTR Value 1µ
