Version 4.1
SHEET 1 880 680
WIRE -256 -80 -288 -80
WIRE -256 -48 -288 -48
WIRE -496 -32 -624 -32
WIRE 304 -32 288 -32
WIRE 416 -32 384 -32
WIRE -624 -16 -624 -32
WIRE -256 -16 -288 -16
WIRE -256 16 -288 16
WIRE 48 32 0 32
WIRE 144 32 128 32
WIRE 288 48 288 -32
WIRE 320 48 288 48
WIRE 416 48 416 -32
WIRE 416 48 384 48
WIRE -144 144 -192 144
WIRE 0 144 0 32
WIRE 0 144 -64 144
WIRE 48 144 0 144
WIRE 192 144 160 144
WIRE 288 144 288 48
WIRE 288 144 272 144
WIRE 320 144 288 144
WIRE 544 144 544 128
WIRE 608 144 544 144
WIRE 144 160 144 32
WIRE 144 160 112 160
WIRE 160 160 160 144
WIRE 160 160 144 160
WIRE 416 160 416 48
WIRE 416 160 384 160
WIRE 480 160 416 160
WIRE 544 160 544 144
WIRE 48 176 16 176
WIRE 320 176 288 176
WIRE -144 224 -160 224
WIRE 16 224 16 176
WIRE 16 224 -64 224
WIRE -160 256 -160 224
WIRE 208 256 160 256
WIRE 288 256 288 176
WIRE 160 272 160 256
FLAG 608 144 0
FLAG 544 48 vcc
FLAG 352 128 vcc
FLAG 80 128 vcc
FLAG 80 192 vee
FLAG 352 192 vee
FLAG 544 240 vee
FLAG 160 272 0
FLAG -160 256 0
FLAG 480 160 out
FLAG -256 -80 in
FLAG -624 64 0
SYMBOL OpAmps\\OP07 80 96 R0
SYMATTR InstName U1
SYMBOL OpAmps\\OP07 352 96 R0
SYMATTR InstName U2
SYMBOL voltage 544 32 R0
WINDOW 123 0 0 Left 0
WINDOW 39 0 0 Left 0
SYMATTR InstName V1
SYMATTR Value 60
SYMBOL voltage 544 144 R0
WINDOW 123 0 0 Left 0
WINDOW 39 0 0 Left 0
SYMATTR InstName V2
SYMATTR Value 60
SYMBOL res 144 16 R90
WINDOW 0 0 56 VBottom 2
WINDOW 3 32 56 VTop 2
SYMATTR InstName R1
SYMATTR Value 1k
SYMBOL res -48 128 R90
WINDOW 0 0 56 VBottom 2
WINDOW 3 32 56 VTop 2
SYMATTR InstName R2
SYMATTR Value 1k
SYMBOL res -48 208 R90
WINDOW 0 0 56 VBottom 2
WINDOW 3 32 56 VTop 2
SYMATTR InstName R3
SYMATTR Value 1k
SYMBOL res 288 128 R90
WINDOW 0 0 56 VBottom 2
WINDOW 3 32 56 VTop 2
SYMATTR InstName R4
SYMATTR Value 1.5k
SYMBOL res 304 240 R90
WINDOW 0 0 56 VBottom 2
WINDOW 3 32 56 VTop 2
SYMATTR InstName R5
SYMATTR Value 1.3k
SYMBOL res 400 -48 R90
WINDOW 0 0 56 VBottom 2
WINDOW 3 32 56 VTop 2
SYMATTR InstName R6
SYMATTR Value 16k
SYMBOL cap 384 32 R90
WINDOW 0 0 32 VBottom 2
WINDOW 3 32 32 VTop 2
SYMATTR InstName C1
SYMATTR Value 0.01µ
SYMBOL voltage -624 -32 R0
WINDOW 123 0 0 Left 0
WINDOW 39 0 0 Left 0
SYMATTR InstName V3
SYMATTR Value 10
SYMBOL generator_symbol -400 -32 R0
SYMATTR InstName X1
TEXT -480 -112 Left 2 !.tran 0 100m 65m
