Version 4.1
SHEET 1 3588 868
WIRE 2880 0 2864 0
WIRE 3008 0 2960 0
WIRE 2848 64 2832 64
WIRE 816 80 816 48
WIRE 1888 80 1776 80
WIRE 1904 80 1888 80
WIRE 1984 96 1984 80
WIRE 2000 96 1984 96
WIRE 2848 96 2848 64
WIRE 2864 96 2864 0
WIRE 2864 96 2848 96
WIRE 2896 96 2864 96
WIRE 528 112 432 112
WIRE 768 112 528 112
WIRE 992 112 896 112
WIRE 1088 112 992 112
WIRE 1104 112 1088 112
WIRE 1264 112 1216 112
WIRE 1360 112 1264 112
WIRE 1536 112 1488 112
WIRE 1568 112 1536 112
WIRE 2208 112 2208 96
WIRE 2224 112 2208 112
WIRE 2464 112 2352 112
WIRE 2624 112 2592 112
WIRE 3008 112 3008 0
WIRE 3008 112 2960 112
WIRE 3040 112 3008 112
WIRE 2624 128 2624 112
WIRE 2672 128 2624 128
WIRE 2896 128 2672 128
WIRE 816 176 816 144
WIRE 1984 208 1984 96
WIRE 2000 208 1984 208
WIRE 2016 208 2000 208
WIRE 2128 208 2128 96
WIRE 2128 208 2096 208
WIRE 2000 256 2000 208
WIRE 2192 256 2000 256
WIRE 2672 256 2672 128
WIRE 2672 256 2272 256
WIRE 2736 304 2736 288
WIRE 2928 304 2736 304
WIRE 1536 336 1536 112
WIRE 1536 336 656 336
WIRE 1776 336 1776 80
WIRE 1776 336 1536 336
WIRE 2736 336 2736 304
WIRE 2928 336 2928 304
FLAG 2928 336 0
FLAG 2736 208 Vcc
FLAG 2736 416 Vee
FLAG 2544 96 Vcc
FLAG 2528 144 Vee
FLAG 2272 80 Vcc
FLAG 2272 144 Vee
FLAG 2048 64 Vcc
FLAG 2048 128 Vee
FLAG 816 48 Vcc
FLAG 816 176 Vee
FLAG 304 96 Vcc
FLAG 304 128 Vee
FLAG 1136 80 Vcc
FLAG 1408 80 Vcc
FLAG 1136 144 Vee
FLAG 1408 144 Vee
FLAG 528 112 vout
FLAG 992 112 vout1
FLAG 1264 112 vout2
FLAG 1536 112 vout3
FLAG 1888 80 in
FLAG 2752 64 0
FLAG 2928 80 Vcc
FLAG 2928 144 Vee
FLAG 3040 112 out
FLAG 0 0 out
SYMBOL voltage 2736 192 R0
WINDOW 123 0 0 Left 0
WINDOW 39 0 0 Left 0
SYMATTR InstName V3
SYMATTR Value 15
SYMBOL voltage 2736 320 R0
WINDOW 123 0 0 Left 0
WINDOW 39 0 0 Left 0
SYMATTR InstName V4
SYMATTR Value 15
SYMBOL res 2000 64 R90
WINDOW 0 0 56 VBottom 2
WINDOW 3 32 56 VTop 2
SYMATTR InstName R6
SYMATTR Value 1k
SYMBOL res 2224 80 R90
WINDOW 0 0 56 VBottom 2
WINDOW 3 32 56 VTop 2
SYMATTR InstName R7
SYMATTR Value 10k
SYMBOL res 2112 192 R90
WINDOW 0 0 56 VBottom 2
WINDOW 3 32 56 VTop 2
SYMATTR InstName R8
SYMATTR Value {a1}
SYMBOL res 2288 240 R90
WINDOW 0 0 56 VBottom 2
WINDOW 3 32 56 VTop 2
SYMATTR InstName R9
SYMATTR Value {a0}
SYMBOL invertor 2528 128 R0
SYMATTR InstName Invertor
SYMBOL inte1 2272 112 R0
SYMATTR InstName Integrator_1_2
SYMBOL inte1 2048 96 R0
SYMATTR InstName Integrator_1_1
SYMBOL schmitt_trigger 816 112 R0
WINDOW 0 -128 -47 Bottom 2
SYMATTR InstName Schmitt_trigger1
SYMBOL input_3 368 112 R0
SYMATTR InstName Oscillator
SYMBOL integrator_2 1152 112 R0
SYMATTR InstName Integrator_1
SYMBOL integrator_2 1424 112 R0
SYMATTR InstName Integrator_2
SYMBOL OpAmps\\OP07 2928 48 R0
SYMATTR InstName U1
SYMBOL res 2848 48 R90
WINDOW 0 0 56 VBottom 2
WINDOW 3 32 56 VTop 2
SYMATTR InstName R1
SYMATTR Value 1k
SYMBOL res 2976 -16 R90
WINDOW 0 0 56 VBottom 2
WINDOW 3 32 56 VTop 2
SYMATTR InstName R2
SYMATTR Value 9k
TEXT 312 344 Left 2 !.tran 0 35 12
TEXT 1888 368 Left 2 !.param a0=2k
TEXT 1896 408 Left 2 !.param a1=666.66
